<?xml version="1.0" encoding="UTF-8"?>

<!-- generated on 25/08/2017 18:07:10 by Netedit Version 0.25.0
<?xml version="1.0" encoding="UTF-8"?>

<configuration xmlns:xsi="http://www.w3.org/2001/XMLSchema-instance" xsi:noNamespaceSchemaLocation="http://sumo.dlr.de/xsd/netedit.exeConfiguration.xsd">

    <input>
        <sumo-net-file value="C:\omnetpp-5.0\workspace\sdvn\simulations\maps\cg.net.xml"/>
    </input>

    <output>
        <output-file value="C:\omnetpp-5.0\workspace\sdvn\simulations\maps\cg.net.xml"/>
        <output.street-names value="true"/>
    </output>

    <processing>
        <no-turnarounds value="true"/>
        <offset.disable-normalization value="true"/>
        <lefthand value="false"/>
        <junctions.corner-detail value="5"/>
    </processing>

</configuration>
-->

<net version="0.25" junctionCornerDetail="5" xmlns:xsi="http://www.w3.org/2001/XMLSchema-instance" xsi:noNamespaceSchemaLocation="http://sumo.dlr.de/xsd/net_file.xsd">

    <location netOffset="-754735.90,2257097.31" convBoundary="24.16,281.97,2279.76,2088.79" origBoundary="-54.559467,-20.395045,-54.537574,-20.374102" projParameter="+proj=utm +zone=21 +ellps=WGS84 +datum=WGS84 +units=m +no_defs"/>

    <edge id=":1672130949_0" function="internal">
        <lane id=":1672130949_0_0" index="0" disallow="tram rail_urban rail rail_electric ship" speed="13.89" length="10.30" shape="1684.48,2046.96 1681.75,2045.69 1679.84,2044.72 1678.01,2043.63 1675.49,2041.97"/>
    </edge>
    <edge id=":1672130949_1" function="internal">
        <lane id=":1672130949_1_0" index="0" disallow="tram rail_urban rail rail_electric ship" speed="13.89" length="5.91" shape="1684.48,2046.96 1681.85,2045.25 1680.55,2043.17 1680.56,2042.85"/>
    </edge>
    <edge id=":1672130949_2" function="internal">
        <lane id=":1672130949_2_0" index="0" disallow="tram rail_urban rail rail_electric ship" speed="13.89" length="2.59" shape="1684.48,2046.96 1683.71,2045.69 1683.68,2044.77 1683.82,2044.66"/>
    </edge>
    <edge id=":1672130949_9" function="internal">
        <lane id=":1672130949_9_0" index="0" speed="13.89" length="5.27" shape="1680.56,2042.85 1680.59,2040.72 1681.96,2037.89"/>
    </edge>
    <edge id=":1672130949_10" function="internal">
        <lane id=":1672130949_10_0" index="0" speed="13.89" length="2.23" shape="1683.82,2044.66 1684.40,2044.19 1685.87,2043.96"/>
    </edge>
    <edge id=":1672130949_3" function="internal">
        <lane id=":1672130949_3_0" index="0" disallow="tram rail_urban rail rail_electric ship" speed="13.89" length="5.21" shape="1684.69,2039.74 1684.05,2041.06 1684.04,2042.20 1684.64,2043.17 1685.87,2043.96"/>
    </edge>
    <edge id=":1672130949_4" function="internal">
        <lane id=":1672130949_4_0" index="0" disallow="tram rail_urban rail rail_electric ship" speed="13.89" length="10.78" shape="1684.69,2039.74 1682.65,2042.05 1680.44,2043.19 1678.05,2043.16 1675.49,2041.97"/>
    </edge>
    <edge id=":1672130949_5" function="internal">
        <lane id=":1672130949_5_0" index="0" disallow="tram rail_urban rail rail_electric ship" speed="13.89" length="4.82" shape="1684.69,2039.74 1683.31,2040.31 1682.40,2040.19 1681.95,2039.38 1681.96,2037.89"/>
    </edge>
    <edge id=":1672130949_6" function="internal">
        <lane id=":1672130949_6_0" index="0" disallow="tram rail_urban rail rail_electric ship" speed="13.89" length="5.48" shape="1677.32,2039.23 1678.58,2039.79 1679.77,2039.75 1680.89,2039.12 1681.96,2037.89"/>
    </edge>
    <edge id=":1672130949_7" function="internal">
        <lane id=":1672130949_7_0" index="0" disallow="tram rail_urban rail rail_electric ship" speed="13.89" length="9.77" shape="1677.32,2039.23 1685.87,2043.96"/>
    </edge>
    <edge id=":1672130949_8" function="internal">
        <lane id=":1672130949_8_0" index="0" disallow="tram rail_urban rail rail_electric ship" speed="13.89" length="2.41" shape="1677.32,2039.23 1677.89,2040.60 1677.78,2041.52"/>
    </edge>
    <edge id=":1672130949_11" function="internal">
        <lane id=":1672130949_11_0" index="0" speed="13.89" length="2.41" shape="1677.78,2041.52 1676.98,2041.97 1675.49,2041.97"/>
    </edge>
    <edge id=":1672130954_0" function="internal">
        <lane id=":1672130954_0_0" index="0" disallow="tram rail_urban rail rail_electric ship" speed="9.73" length="5.05" shape="1640.58,2018.65 1639.33,2018.05 1638.19,2018.00 1637.16,2018.48 1636.23,2019.50"/>
    </edge>
    <edge id=":1672130954_1" function="internal">
        <lane id=":1672130954_1_0" index="0" disallow="tram rail_urban rail rail_electric ship" speed="13.89" length="9.54" shape="1640.58,2018.65 1632.65,2013.35"/>
    </edge>
    <edge id=":1672130954_2" function="internal">
        <lane id=":1672130954_2_0" index="0" disallow="tram rail_urban rail rail_electric ship" speed="13.89" length="5.28" shape="1640.58,2018.65 1638.46,2016.76 1637.47,2014.64 1637.48,2014.53"/>
    </edge>
    <edge id=":1672130954_3" function="internal">
        <lane id=":1672130954_3_0" index="0" disallow="tram rail_urban rail rail_electric ship" speed="13.89" length="2.41" shape="1640.58,2018.65 1640.01,2017.28 1640.12,2016.36"/>
    </edge>
    <edge id=":1672130954_16" function="internal">
        <lane id=":1672130954_16_0" index="0" speed="13.89" length="5.07" shape="1637.48,2014.53 1637.59,2012.31 1638.83,2009.76"/>
    </edge>
    <edge id=":1672130954_17" function="internal">
        <lane id=":1672130954_17_0" index="0" speed="13.89" length="2.41" shape="1640.12,2016.36 1640.92,2015.91 1642.41,2015.91"/>
    </edge>
    <edge id=":1672130954_4" function="internal">
        <lane id=":1672130954_4_0" index="0" disallow="tram rail_urban rail rail_electric ship" speed="13.89" length="5.01" shape="1641.57,2011.60 1640.97,2012.84 1640.91,2013.97 1641.39,2014.99 1642.41,2015.91"/>
    </edge>
    <edge id=":1672130954_5" function="internal">
        <lane id=":1672130954_5_0" index="0" disallow="tram rail_urban rail rail_electric ship" speed="9.73" length="9.54" shape="1641.57,2011.60 1636.23,2019.50"/>
    </edge>
    <edge id=":1672130954_6" function="internal">
        <lane id=":1672130954_6_0" index="0" disallow="tram rail_urban rail rail_electric ship" speed="13.89" length="10.35" shape="1641.57,2011.60 1639.66,2013.70 1637.54,2014.70 1635.20,2014.58 1632.65,2013.35"/>
    </edge>
    <edge id=":1672130954_7" function="internal">
        <lane id=":1672130954_7_0" index="0" disallow="tram rail_urban rail rail_electric ship" speed="13.89" length="4.82" shape="1641.57,2011.60 1640.19,2012.17 1639.28,2012.05 1638.82,2011.24 1638.83,2009.76"/>
    </edge>
    <edge id=":1672130954_8" function="internal">
        <lane id=":1672130954_8_0" index="0" disallow="tram rail_urban rail rail_electric ship" speed="13.89" length="5.05" shape="1634.48,2010.61 1635.73,2011.21 1636.87,2011.26 1637.90,2010.78 1638.83,2009.76"/>
    </edge>
    <edge id=":1672130954_9" function="internal">
        <lane id=":1672130954_9_0" index="0" disallow="tram rail_urban rail rail_electric ship" speed="13.89" length="9.54" shape="1634.48,2010.61 1642.41,2015.91"/>
    </edge>
    <edge id=":1672130954_10" function="internal">
        <lane id=":1672130954_10_0" index="0" disallow="tram rail_urban rail rail_electric ship" speed="9.73" length="5.28" shape="1634.48,2010.61 1636.59,2012.50 1637.59,2014.62 1637.58,2014.73"/>
    </edge>
    <edge id=":1672130954_11" function="internal">
        <lane id=":1672130954_11_0" index="0" disallow="tram rail_urban rail rail_electric ship" speed="13.89" length="2.41" shape="1634.48,2010.61 1635.05,2011.98 1634.94,2012.90"/>
    </edge>
    <edge id=":1672130954_18" function="internal">
        <lane id=":1672130954_18_0" index="0" speed="9.73" length="5.07" shape="1637.58,2014.73 1637.47,2016.95 1636.23,2019.50"/>
    </edge>
    <edge id=":1672130954_19" function="internal">
        <lane id=":1672130954_19_0" index="0" speed="13.89" length="2.41" shape="1634.94,2012.90 1634.14,2013.36 1632.65,2013.35"/>
    </edge>
    <edge id=":1672130954_12" function="internal">
        <lane id=":1672130954_12_0" index="0" disallow="tram rail_urban rail rail_electric ship" speed="9.73" length="5.01" shape="1633.49,2017.66 1634.09,2016.42 1634.15,2015.29 1633.67,2014.27 1632.65,2013.35"/>
    </edge>
    <edge id=":1672130954_13" function="internal">
        <lane id=":1672130954_13_0" index="0" disallow="tram rail_urban rail rail_electric ship" speed="9.73" length="9.54" shape="1633.49,2017.66 1638.83,2009.76"/>
    </edge>
    <edge id=":1672130954_14" function="internal">
        <lane id=":1672130954_14_0" index="0" disallow="tram rail_urban rail rail_electric ship" speed="9.73" length="10.35" shape="1633.49,2017.66 1635.40,2015.56 1637.52,2014.56 1639.86,2014.68 1642.41,2015.91"/>
    </edge>
    <edge id=":1672130954_15" function="internal">
        <lane id=":1672130954_15_0" index="0" disallow="tram rail_urban rail rail_electric ship" speed="5.56" length="4.82" shape="1633.49,2017.66 1634.87,2017.09 1635.78,2017.21 1636.24,2018.02 1636.23,2019.50"/>
    </edge>
    <edge id=":1672130957_0" function="internal">
        <lane id=":1672130957_0_0" index="0" disallow="tram rail_urban rail rail_electric ship" speed="9.73" length="10.28" shape="1415.11,2014.57 1412.35,2013.34 1410.43,2012.42 1408.58,2011.38 1406.03,2009.78"/>
    </edge>
    <edge id=":1672130957_1" function="internal">
        <lane id=":1672130957_1_0" index="0" disallow="tram rail_urban rail rail_electric ship" speed="9.73" length="11.28" shape="1415.11,2014.57 1412.42,2012.88 1411.08,2010.81 1411.11,2008.35 1412.49,2005.49"/>
    </edge>
    <edge id=":1672130957_2" function="internal">
        <lane id=":1672130957_2_0" index="0" disallow="tram rail_urban rail rail_electric ship" speed="5.56" length="4.82" shape="1415.11,2014.57 1414.31,2013.31 1414.26,2012.39 1414.97,2011.80 1416.44,2011.55"/>
    </edge>
    <edge id=":1672130957_3" function="internal">
        <lane id=":1672130957_3_0" index="0" disallow="tram rail_urban rail rail_electric ship" speed="9.73" length="5.23" shape="1415.23,2007.34 1414.58,2008.66 1414.57,2009.81 1415.19,2010.77 1416.44,2011.55"/>
    </edge>
    <edge id=":1672130957_4" function="internal">
        <lane id=":1672130957_4_0" index="0" disallow="tram rail_urban rail rail_electric ship" speed="13.89" length="10.78" shape="1415.23,2007.34 1413.18,2009.66 1410.97,2010.85 1408.58,2010.89 1406.03,2009.78"/>
    </edge>
    <edge id=":1672130957_5" function="internal">
        <lane id=":1672130957_5_0" index="0" disallow="tram rail_urban rail rail_electric ship" speed="13.89" length="2.65" shape="1415.23,2007.34 1413.85,2007.90 1412.94,2007.78 1412.82,2007.57"/>
    </edge>
    <edge id=":1672130957_9" function="internal">
        <lane id=":1672130957_9_0" index="0" speed="13.89" length="2.17" shape="1412.82,2007.57 1412.48,2006.98 1412.49,2005.49"/>
    </edge>
    <edge id=":1672130957_6" function="internal">
        <lane id=":1672130957_6_0" index="0" disallow="tram rail_urban rail rail_electric ship" speed="13.89" length="5.57" shape="1407.79,2007.00 1409.05,2007.51 1410.26,2007.44 1411.40,2006.76 1412.49,2005.49"/>
    </edge>
    <edge id=":1672130957_7" function="internal">
        <lane id=":1672130957_7_0" index="0" disallow="tram rail_urban rail rail_electric ship" speed="9.73" length="9.77" shape="1407.79,2007.00 1416.44,2011.55"/>
    </edge>
    <edge id=":1672130957_8" function="internal">
        <lane id=":1672130957_8_0" index="0" disallow="tram rail_urban rail rail_electric ship" speed="13.89" length="2.17" shape="1407.79,2007.00 1408.40,2008.36 1408.33,2009.03"/>
    </edge>
    <edge id=":1672130957_10" function="internal">
        <lane id=":1672130957_10_0" index="0" speed="13.89" length="2.65" shape="1408.33,2009.03 1408.30,2009.27 1407.51,2009.75 1406.03,2009.78"/>
    </edge>
    <edge id=":1672130959_0" function="internal">
        <lane id=":1672130959_0_0" index="0" disallow="tram rail_urban rail rail_electric ship" speed="13.89" length="9.50" shape="1888.44,1979.40 1883.12,1987.27"/>
    </edge>
    <edge id=":1672130959_1" function="internal">
        <lane id=":1672130959_1_0" index="0" disallow="tram rail_urban rail rail_electric ship" speed="13.89" length="5.27" shape="1888.44,1979.40 1886.54,1981.49 1884.43,1982.47 1884.31,1982.47"/>
    </edge>
    <edge id=":1672130959_2" function="internal">
        <lane id=":1672130959_2_0" index="0" disallow="tram rail_urban rail rail_electric ship" speed="13.89" length="2.41" shape="1888.44,1979.40 1887.06,1979.97 1886.15,1979.85"/>
    </edge>
    <edge id=":1672130959_9" function="internal">
        <lane id=":1672130959_9_0" index="0" speed="13.89" length="5.06" shape="1884.31,1982.47 1882.09,1982.35 1879.54,1981.12"/>
    </edge>
    <edge id=":1672130959_10" function="internal">
        <lane id=":1672130959_10_0" index="0" speed="13.89" length="2.41" shape="1886.15,1979.85 1885.69,1979.04 1885.70,1977.56"/>
    </edge>
    <edge id=":1672130959_3" function="internal">
        <lane id=":1672130959_3_0" index="0" disallow="tram rail_urban rail rail_electric ship" speed="13.89" length="5.02" shape="1881.37,1978.38 1882.62,1978.98 1883.75,1979.04 1884.78,1978.57 1885.70,1977.56"/>
    </edge>
    <edge id=":1672130959_4" function="internal">
        <lane id=":1672130959_4_0" index="0" disallow="tram rail_urban rail rail_electric ship" speed="13.89" length="10.35" shape="1881.37,1978.38 1883.48,1980.27 1884.48,1982.39 1884.36,1984.72 1883.12,1987.27"/>
    </edge>
    <edge id=":1672130959_5" function="internal">
        <lane id=":1672130959_5_0" index="0" disallow="tram rail_urban rail rail_electric ship" speed="13.89" length="4.82" shape="1881.37,1978.38 1881.94,1979.75 1881.83,1980.67 1881.03,1981.12 1879.54,1981.12"/>
    </edge>
    <edge id=":1672130959_6" function="internal">
        <lane id=":1672130959_6_0" index="0" disallow="tram rail_urban rail rail_electric ship" speed="13.89" length="5.01" shape="1880.38,1985.43 1880.98,1984.19 1881.04,1983.06 1880.56,1982.04 1879.54,1981.12"/>
    </edge>
    <edge id=":1672130959_7" function="internal">
        <lane id=":1672130959_7_0" index="0" disallow="tram rail_urban rail rail_electric ship" speed="13.89" length="9.50" shape="1880.38,1985.43 1885.70,1977.56"/>
    </edge>
    <edge id=":1672130959_8" function="internal">
        <lane id=":1672130959_8_0" index="0" disallow="tram rail_urban rail rail_electric ship" speed="13.89" length="2.41" shape="1880.38,1985.43 1881.76,1984.86 1882.67,1984.98"/>
    </edge>
    <edge id=":1672130959_11" function="internal">
        <lane id=":1672130959_11_0" index="0" speed="13.89" length="2.41" shape="1882.67,1984.98 1883.13,1985.79 1883.12,1987.27"/>
    </edge>
    <edge id=":1672130961_0" function="internal">
        <lane id=":1672130961_0_0" index="0" disallow="tram rail_urban rail rail_electric ship" speed="13.89" length="9.50" shape="1334.47,1964.48 1326.45,1959.40"/>
    </edge>
    <edge id=":1672130961_1" function="internal">
        <lane id=":1672130961_1_0" index="0" disallow="tram rail_urban rail rail_electric ship" speed="13.89" length="5.24" shape="1334.47,1964.48 1332.28,1962.61 1331.24,1960.49"/>
    </edge>
    <edge id=":1672130961_2" function="internal">
        <lane id=":1672130961_2_0" index="0" disallow="tram rail_urban rail rail_electric ship" speed="13.89" length="2.41" shape="1334.47,1964.48 1333.87,1963.12 1333.96,1962.20"/>
    </edge>
    <edge id=":1672130961_9" function="internal">
        <lane id=":1672130961_9_0" index="0" speed="13.89" length="5.24" shape="1331.24,1960.49 1331.35,1958.14 1332.61,1955.55"/>
    </edge>
    <edge id=":1672130961_10" function="internal">
        <lane id=":1672130961_10_0" index="0" speed="13.89" length="2.41" shape="1333.96,1962.20 1334.75,1961.73 1336.24,1961.69"/>
    </edge>
    <edge id=":1672130961_3" function="internal">
        <lane id=":1672130961_3_0" index="0" disallow="tram rail_urban rail rail_electric ship" speed="13.89" length="5.04" shape="1335.34,1957.40 1334.74,1958.64 1334.69,1959.77 1335.19,1960.79 1336.24,1961.69"/>
    </edge>
    <edge id=":1672130961_4" function="internal">
        <lane id=":1672130961_4_0" index="0" disallow="tram rail_urban rail rail_electric ship" speed="13.89" length="10.33" shape="1335.34,1957.40 1333.43,1959.53 1331.31,1960.57 1328.98,1960.52 1326.45,1959.40"/>
    </edge>
    <edge id=":1672130961_5" function="internal">
        <lane id=":1672130961_5_0" index="0" disallow="tram rail_urban rail rail_electric ship" speed="13.89" length="4.82" shape="1335.34,1957.40 1333.97,1957.96 1333.05,1957.84 1332.60,1957.04 1332.61,1955.55"/>
    </edge>
    <edge id=":1672130961_6" function="internal">
        <lane id=":1672130961_6_0" index="0" disallow="tram rail_urban rail rail_electric ship" speed="13.89" length="5.12" shape="1328.21,1956.61 1329.45,1957.15 1330.60,1957.16 1331.65,1956.62 1332.61,1955.55"/>
    </edge>
    <edge id=":1672130961_7" function="internal">
        <lane id=":1672130961_7_0" index="0" disallow="tram rail_urban rail rail_electric ship" speed="13.89" length="9.50" shape="1328.21,1956.61 1336.24,1961.69"/>
    </edge>
    <edge id=":1672130961_8" function="internal">
        <lane id=":1672130961_8_0" index="0" disallow="tram rail_urban rail rail_electric ship" speed="13.89" length="2.41" shape="1328.21,1956.61 1328.81,1957.97 1328.72,1958.88"/>
    </edge>
    <edge id=":1672130961_11" function="internal">
        <lane id=":1672130961_11_0" index="0" speed="13.89" length="2.41" shape="1328.72,1958.88 1327.93,1959.36 1326.45,1959.40"/>
    </edge>
    <edge id=":1672130965_0" function="internal">
        <lane id=":1672130965_0_0" index="0" disallow="tram rail_urban rail rail_electric ship" speed="13.89" length="9.50" shape="1687.52,1943.63 1682.20,1951.50"/>
    </edge>
    <edge id=":1672130965_1" function="internal">
        <lane id=":1672130965_1_0" index="0" disallow="tram rail_urban rail rail_electric ship" speed="13.89" length="5.26" shape="1687.52,1943.63 1685.62,1945.72 1683.51,1946.70 1683.39,1946.70"/>
    </edge>
    <edge id=":1672130965_2" function="internal">
        <lane id=":1672130965_2_0" index="0" disallow="tram rail_urban rail rail_electric ship" speed="13.89" length="2.41" shape="1687.52,1943.63 1686.14,1944.20 1685.23,1944.08"/>
    </edge>
    <edge id=":1672130965_9" function="internal">
        <lane id=":1672130965_9_0" index="0" speed="13.89" length="5.06" shape="1683.39,1946.70 1681.17,1946.58 1678.62,1945.35"/>
    </edge>
    <edge id=":1672130965_10" function="internal">
        <lane id=":1672130965_10_0" index="0" speed="13.89" length="2.41" shape="1685.23,1944.08 1684.77,1943.27 1684.78,1941.79"/>
    </edge>
    <edge id=":1672130965_3" function="internal">
        <lane id=":1672130965_3_0" index="0" disallow="tram rail_urban rail rail_electric ship" speed="13.89" length="5.02" shape="1680.45,1942.61 1681.70,1943.21 1682.83,1943.27 1683.86,1942.80 1684.78,1941.79"/>
    </edge>
    <edge id=":1672130965_4" function="internal">
        <lane id=":1672130965_4_0" index="0" disallow="tram rail_urban rail rail_electric ship" speed="13.89" length="10.35" shape="1680.45,1942.61 1682.56,1944.50 1683.56,1946.62 1683.44,1948.95 1682.20,1951.50"/>
    </edge>
    <edge id=":1672130965_5" function="internal">
        <lane id=":1672130965_5_0" index="0" disallow="tram rail_urban rail rail_electric ship" speed="13.89" length="4.82" shape="1680.45,1942.61 1681.02,1943.98 1680.91,1944.90 1680.11,1945.35 1678.62,1945.35"/>
    </edge>
    <edge id=":1672130965_6" function="internal">
        <lane id=":1672130965_6_0" index="0" disallow="tram rail_urban rail rail_electric ship" speed="13.89" length="5.01" shape="1679.46,1949.66 1680.06,1948.42 1680.12,1947.29 1679.64,1946.27 1678.62,1945.35"/>
    </edge>
    <edge id=":1672130965_7" function="internal">
        <lane id=":1672130965_7_0" index="0" disallow="tram rail_urban rail rail_electric ship" speed="13.89" length="9.50" shape="1679.46,1949.66 1684.78,1941.79"/>
    </edge>
    <edge id=":1672130965_8" function="internal">
        <lane id=":1672130965_8_0" index="0" disallow="tram rail_urban rail rail_electric ship" speed="13.89" length="2.41" shape="1679.46,1949.66 1680.84,1949.09 1681.75,1949.21"/>
    </edge>
    <edge id=":1672130965_11" function="internal">
        <lane id=":1672130965_11_0" index="0" speed="13.89" length="2.41" shape="1681.75,1949.21 1682.21,1950.02 1682.20,1951.50"/>
    </edge>
    <edge id=":1672130967_0" function="internal">
        <lane id=":1672130967_0_0" index="0" disallow="tram rail_urban rail rail_electric ship" speed="13.89" length="5.02" shape="1817.26,1939.52 1816.02,1938.93 1814.89,1938.88 1813.86,1939.37 1812.94,1940.39"/>
    </edge>
    <edge id=":1672130967_1" function="internal">
        <lane id=":1672130967_1_0" index="0" disallow="tram rail_urban rail rail_electric ship" speed="13.89" length="9.50" shape="1817.26,1939.52 1809.36,1934.24"/>
    </edge>
    <edge id=":1672130967_2" function="internal">
        <lane id=":1672130967_2_0" index="0" disallow="tram rail_urban rail rail_electric ship" speed="13.89" length="2.41" shape="1817.26,1939.52 1816.69,1938.15 1816.80,1937.23"/>
    </edge>
    <edge id=":1672130967_9" function="internal">
        <lane id=":1672130967_9_0" index="0" speed="13.89" length="2.41" shape="1816.80,1937.23 1817.60,1936.77 1819.09,1936.78"/>
    </edge>
    <edge id=":1672130967_3" function="internal">
        <lane id=":1672130967_3_0" index="0" disallow="tram rail_urban rail rail_electric ship" speed="13.89" length="9.50" shape="1811.19,1931.50 1819.09,1936.78"/>
    </edge>
    <edge id=":1672130967_4" function="internal">
        <lane id=":1672130967_4_0" index="0" disallow="tram rail_urban rail rail_electric ship" speed="13.89" length="5.28" shape="1811.19,1931.50 1813.30,1933.39 1814.30,1935.51 1814.29,1935.62"/>
    </edge>
    <edge id=":1672130967_5" function="internal">
        <lane id=":1672130967_5_0" index="0" disallow="tram rail_urban rail rail_electric ship" speed="13.89" length="2.41" shape="1811.19,1931.50 1811.76,1932.87 1811.65,1933.79"/>
    </edge>
    <edge id=":1672130967_10" function="internal">
        <lane id=":1672130967_10_0" index="0" speed="13.89" length="5.07" shape="1814.29,1935.62 1814.18,1937.84 1812.94,1940.39"/>
    </edge>
    <edge id=":1672130967_11" function="internal">
        <lane id=":1672130967_11_0" index="0" speed="13.89" length="2.41" shape="1811.65,1933.79 1810.85,1934.24 1809.36,1934.24"/>
    </edge>
    <edge id=":1672130967_6" function="internal">
        <lane id=":1672130967_6_0" index="0" disallow="tram rail_urban rail rail_electric ship" speed="13.89" length="5.01" shape="1810.20,1938.55 1810.80,1937.31 1810.86,1936.18 1810.38,1935.16 1809.36,1934.24"/>
    </edge>
    <edge id=":1672130967_7" function="internal">
        <lane id=":1672130967_7_0" index="0" disallow="tram rail_urban rail rail_electric ship" speed="13.89" length="10.32" shape="1810.20,1938.55 1812.10,1936.44 1814.22,1935.45 1816.55,1935.56 1819.09,1936.78"/>
    </edge>
    <edge id=":1672130967_8" function="internal">
        <lane id=":1672130967_8_0" index="0" disallow="tram rail_urban rail rail_electric ship" speed="13.89" length="4.82" shape="1810.20,1938.55 1811.58,1937.98 1812.49,1938.10 1812.95,1938.91 1812.94,1940.39"/>
    </edge>
    <edge id=":1672130971_0" function="internal">
        <lane id=":1672130971_0_0" index="0" disallow="tram rail_urban rail rail_electric ship" speed="13.89" length="9.50" shape="1934.02,1911.98 1928.70,1919.85"/>
    </edge>
    <edge id=":1672130971_1" function="internal">
        <lane id=":1672130971_1_0" index="0" disallow="tram rail_urban rail rail_electric ship" speed="13.89" length="5.27" shape="1934.02,1911.98 1932.12,1914.07 1930.01,1915.05 1929.89,1915.05"/>
    </edge>
    <edge id=":1672130971_2" function="internal">
        <lane id=":1672130971_2_0" index="0" disallow="tram rail_urban rail rail_electric ship" speed="13.89" length="2.41" shape="1934.02,1911.98 1932.64,1912.55 1931.73,1912.43"/>
    </edge>
    <edge id=":1672130971_9" function="internal">
        <lane id=":1672130971_9_0" index="0" speed="13.89" length="5.06" shape="1929.89,1915.05 1927.67,1914.93 1925.12,1913.70"/>
    </edge>
    <edge id=":1672130971_10" function="internal">
        <lane id=":1672130971_10_0" index="0" speed="13.89" length="2.41" shape="1931.73,1912.43 1931.27,1911.62 1931.28,1910.14"/>
    </edge>
    <edge id=":1672130971_3" function="internal">
        <lane id=":1672130971_3_0" index="0" disallow="tram rail_urban rail rail_electric ship" speed="13.89" length="5.02" shape="1926.95,1910.96 1928.20,1911.56 1929.33,1911.62 1930.36,1911.15 1931.28,1910.14"/>
    </edge>
    <edge id=":1672130971_4" function="internal">
        <lane id=":1672130971_4_0" index="0" disallow="tram rail_urban rail rail_electric ship" speed="13.89" length="10.35" shape="1926.95,1910.96 1929.06,1912.85 1930.06,1914.97 1929.94,1917.30 1928.70,1919.85"/>
    </edge>
    <edge id=":1672130971_5" function="internal">
        <lane id=":1672130971_5_0" index="0" disallow="tram rail_urban rail rail_electric ship" speed="13.89" length="4.82" shape="1926.95,1910.96 1927.52,1912.33 1927.41,1913.25 1926.61,1913.70 1925.12,1913.70"/>
    </edge>
    <edge id=":1672130971_6" function="internal">
        <lane id=":1672130971_6_0" index="0" disallow="tram rail_urban rail rail_electric ship" speed="13.89" length="5.01" shape="1925.96,1918.01 1926.56,1916.77 1926.62,1915.64 1926.14,1914.62 1925.12,1913.70"/>
    </edge>
    <edge id=":1672130971_7" function="internal">
        <lane id=":1672130971_7_0" index="0" disallow="tram rail_urban rail rail_electric ship" speed="13.89" length="9.50" shape="1925.96,1918.01 1931.28,1910.14"/>
    </edge>
    <edge id=":1672130971_8" function="internal">
        <lane id=":1672130971_8_0" index="0" disallow="tram rail_urban rail rail_electric ship" speed="13.89" length="2.41" shape="1925.96,1918.01 1927.34,1917.44 1928.25,1917.56"/>
    </edge>
    <edge id=":1672130971_11" function="internal">
        <lane id=":1672130971_11_0" index="0" speed="13.89" length="2.41" shape="1928.25,1917.56 1928.71,1918.37 1928.70,1919.85"/>
    </edge>
    <edge id=":1672130973_0" function="internal">
        <lane id=":1672130973_0_0" index="0" disallow="tram rail_urban rail rail_electric ship" speed="13.89" length="5.02" shape="1775.18,1911.41 1773.94,1910.82 1772.81,1910.77 1771.78,1911.26 1770.86,1912.28"/>
    </edge>
    <edge id=":1672130973_1" function="internal">
        <lane id=":1672130973_1_0" index="0" disallow="tram rail_urban rail rail_electric ship" speed="13.89" length="9.50" shape="1775.18,1911.41 1767.28,1906.13"/>
    </edge>
    <edge id=":1672130973_2" function="internal">
        <lane id=":1672130973_2_0" index="0" disallow="tram rail_urban rail rail_electric ship" speed="13.89" length="2.41" shape="1775.18,1911.41 1774.61,1910.04 1774.72,1909.12"/>
    </edge>
    <edge id=":1672130973_9" function="internal">
        <lane id=":1672130973_9_0" index="0" speed="13.89" length="2.41" shape="1774.72,1909.12 1775.52,1908.67 1777.01,1908.67"/>
    </edge>
    <edge id=":1672130973_3" function="internal">
        <lane id=":1672130973_3_0" index="0" disallow="tram rail_urban rail rail_electric ship" speed="13.89" length="9.50" shape="1769.11,1903.39 1777.01,1908.67"/>
    </edge>
    <edge id=":1672130973_4" function="internal">
        <lane id=":1672130973_4_0" index="0" disallow="tram rail_urban rail rail_electric ship" speed="13.89" length="5.28" shape="1769.11,1903.39 1771.23,1905.28 1772.22,1907.40 1772.21,1907.51"/>
    </edge>
    <edge id=":1672130973_5" function="internal">
        <lane id=":1672130973_5_0" index="0" disallow="tram rail_urban rail rail_electric ship" speed="13.89" length="2.41" shape="1769.11,1903.39 1769.68,1904.76 1769.57,1905.68"/>
    </edge>
    <edge id=":1672130973_10" function="internal">
        <lane id=":1672130973_10_0" index="0" speed="13.89" length="5.07" shape="1772.21,1907.51 1772.10,1909.73 1770.86,1912.28"/>
    </edge>
    <edge id=":1672130973_11" function="internal">
        <lane id=":1672130973_11_0" index="0" speed="13.89" length="2.41" shape="1769.57,1905.68 1768.77,1906.13 1767.28,1906.13"/>
    </edge>
    <edge id=":1672130973_6" function="internal">
        <lane id=":1672130973_6_0" index="0" disallow="tram rail_urban rail rail_electric ship" speed="13.89" length="5.01" shape="1768.12,1910.44 1768.72,1909.20 1768.78,1908.07 1768.30,1907.05 1767.28,1906.13"/>
    </edge>
    <edge id=":1672130973_7" function="internal">
        <lane id=":1672130973_7_0" index="0" disallow="tram rail_urban rail rail_electric ship" speed="13.89" length="10.32" shape="1768.12,1910.44 1770.02,1908.33 1772.14,1907.34 1774.47,1907.45 1777.01,1908.67"/>
    </edge>
    <edge id=":1672130973_8" function="internal">
        <lane id=":1672130973_8_0" index="0" disallow="tram rail_urban rail rail_electric ship" speed="13.89" length="4.82" shape="1768.12,1910.44 1769.50,1909.87 1770.41,1909.99 1770.87,1910.80 1770.86,1912.28"/>
    </edge>
    <edge id=":1672130980_0" function="internal">
        <lane id=":1672130980_0_0" index="0" disallow="tram rail_urban rail rail_electric ship" speed="13.89" length="9.50" shape="1254.25,1913.70 1246.23,1908.62"/>
    </edge>
    <edge id=":1672130980_1" function="internal">
        <lane id=":1672130980_1_0" index="0" disallow="tram rail_urban rail rail_electric ship" speed="13.89" length="5.24" shape="1254.25,1913.70 1252.06,1911.83 1251.02,1909.71"/>
    </edge>
    <edge id=":1672130980_2" function="internal">
        <lane id=":1672130980_2_0" index="0" disallow="tram rail_urban rail rail_electric ship" speed="13.89" length="2.41" shape="1254.25,1913.70 1253.65,1912.34 1253.74,1911.42"/>
    </edge>
    <edge id=":1672130980_9" function="internal">