[General]

##########################################################
#               Console parameters                       #
##########################################################
cmdenv-express-mode = true
cmdenv-autoflush = false
cmdenv-status-frequency = 1s
cmdenv-performance-display = true

##########################################################
#            Simulation parameters                       #
##########################################################
ned-path = .
sim-time-limit = 1000s

**.debug = false
**.coreDebug = false

num-rngs = 5
seed-0-mt = 123
seed-1-mt = 123
seed-2-mt = 123

repeat = 1

debug-on-errors = true
print-undisposed = true
**.scalar-recording = true
**.vector-recording = true

##########################################################
# Annotation parameters                                  #
##########################################################
*.annotations.draw = false

##########################################################
#            WorldUtility parameters                     #
##########################################################
*.world.useTorus = false
*.world.use2D = false

##########################################################
#            TraCIScenarioManager parameters             #
##########################################################
#*.manager.numVehicles = 100
*.manager.updateInterval = 0.1s
*.manager.host = "localhost"
*.manager.port = 9999
*.manager.moduleType = "sdvn.nodes.Car"
*.manager.moduleName = "vehicle"
*.manager.moduleDisplayString = ""
*.manager.autoShutdown = true
*.manager.margin = 10

##########################################################
#                    SWITCHER CONFIGS                    #
##########################################################
# BaseWaveAppl
*.**.switcher.debug = false
*.**.switcher.headerLength = 256 bit
*.**.switcher.sendBeacons = true
*.**.switcher.dataOnSch = false
*.**.switcher.sendData = true
*.**.switcher.beaconInterval = 0.5s
*.**.switcher.beaconPriority = 3
*.**.switcher.dataPriority = 2
*.**.switcher.maxOffset = 0.005s

# Switcher
*.**.switcher.controllerBeaconsInterval = 1s
*.**.switcher.standbyTime = 5s
*.**.switcher.maxPacketStandbyBuffer = 100
*.**.switcher.maxPacketInBuffer = 100
*.**.switcher.maxFlowRules = 50

##########################################################
#               LTE AND CONTROLLER SETTINGS              #
##########################################################
*.controller.debug = false
# drop all messages after X seconds without neighbor message 
*.controller.dropAfter = 10s
*.controller.hardTimeout = 5s
*.controller.idleTimeout = 3s

*.base.debug = false
*.base.lteDelay = 0.1s
*.base.power = 0 # not in use yet

# Common RSU settings
*.prefixRsuId = 10000
*.rsu[*].mobility.z = 3
##########################################################
#            11p specific parameters                     #
#                                                        #
#                    NIC-Settings                        #
##########################################################
*.connectionManager.pMax = 5mW
*.connectionManager.sat = -89dBm
*.connectionManager.alpha = 2.0
*.connectionManager.carrierFrequency = 5.890e9 Hz
*.connectionManager.sendDirect = true
*.connectionManager.drawMaxIntfDist = false

*.**.nic.mac1609_4.useServiceChannel = false
*.**.nic.mac1609_4.txPower = 5mW
*.**.nic.mac1609_4.bitrate = 18Mbps

*.**.nic.phy80211p.sensitivity = -89dBm
*.**.nic.phy80211p.useThermalNoise = true
*.**.nic.phy80211p.thermalNoise = -110dBm
*.**.nic.phy80211p.decider = xmldoc("config.xml")
*.**.nic.phy80211p.analogueModels = xmldoc("config.xml")
*.**.nic.phy80211p.usePropagationDelay = true


##########################################################
#                      Mobility                          #
##########################################################
*.vehicle[*].veinsmobilityType = "sdvn.modules.SdvnMobility"
*.vehicle[*].mobilityType = "SdvnMobility"
*.vehicle[*].mobilityType.debug = false
*.vehicle[*].veinsmobilityType.debug = false
*.vehicle[*].veinsmobility.x = 0
*.vehicle[*].veinsmobility.y = 0
*.vehicle[*].veinsmobility.z = 1.895
*.vehicle[*0].veinsmobility.accidentCount = 0
*.vehicle[*0].veinsmobility.accidentStart = 10s
*.vehicle[*0].veinsmobility.accidentDuration = 10s

##########################################################
#                      Appl Settings                     #
##########################################################
*.vehicle[*].appl.warmUp         = 3s  # Must be greater than the first neighbor beacon (in order to controller knows the vehicle first)
*.vehicle[*].appl.burstSize      = 1   # How many packets will be sent by burst
*.vehicle[*].appl.burstInterval  = 1s  # Interval between the bursts

##########################################################
#                    Attacks Settings                    #
##########################################################
*.vehicle[*].appl.attackerRate = 0.25          # How many vehicles will become attackers (0.25 -> 25%)

# Mitigation
*.vehicle[*].appl.victims      = "36"                # Victims IDs (this parameter refers to all following)
*.vehicle[*].appl.startTime    = "60"                # Start Time (s)
*.vehicle[*].appl.duration     = "60"                # Attack Duration (s)
*.vehicle[*].appl.attackSize   = ${Size="5","10"}    # How many packets will be sent by burst

# 50 vehicles
#*.manager.launchConfig = xmldoc("maps/map.launchd.50.xml")
#*.vehicle[*].appl.victims      = "10,13,36"   # Victims IDs (this parameter refers to all following)
#*.vehicle[*].appl.startTime    = "20,45,70"   # Start Time (s)
#*.vehicle[*].appl.duration     = "20,20,20"   # Attack Duration (s)
#*.vehicle[*].appl.attackSize   = "5,5,5"      # How many packets will be sent by burst

# 100 vehicles
#*.manager.launchConfig = xmldoc("maps/map.launchd.100.xml")
#*.vehicle[*].appl.victims      = "30,31,40,41,50,51,60,61,070,080,081,090,091,095,096"  # Victims IDs (this parameter refers to all following)
#*.vehicle[*].appl.startTime    = "60,65,70,75,80,85,90,95,100,105,110,115,120,125,130"  # Start Time (s)
#*.vehicle[*].appl.duration     = "05,05,05,05,05,05,05,05,005,005,005,005,005,005,005"  # Attack Duration (s)

#*.vehicle[*].appl.attackSize    = "05,05,05,05,05,05,05,05,005,005,005,005,005,005,005"  # Attack Duration (s)
#*.vehicle[*].appl.attackSize   = "20,20,20,20,20,20,20,20,020,020,020,020,020,020,020"  # How many packets will be sent by burst
#*.vehicle[*].appl.attackSize   = "10,10,10,10,10,10,10,10,010,010,010,010,010,010,010"  # How many packets will be sent by burst

# 250 vehicles
#*.manager.launchConfig = xmldoc("maps/map.launchd.250.xml")
#*.vehicle[*].appl.victims      = "24,38,44,73,110,121,144"
#*.vehicle[*].appl.startTime    = "45,70,95,120,145,170,195"
#*.vehicle[*].appl.duration     = "20,20,20,20,20,20,20"
#*.vehicle[*].appl.attackSize   = "10,10,10,10,10,10,10"

# 500 vehicles
#*.manager.launchConfig = xmldoc("maps/map.launchd.500.xml") # 41 victims
#*.vehicle[*].appl.victims      = "06,08,17,18,20,025,039,050,064,066,071,075,094,128,138,147,154,203,223,230,239,243,270,281,287,291,296,298,313,354,362,370,385,388,398,400,415,430,436,442,450,462" # Victims IDs (this parameter refers to all following)
#*.vehicle[*].appl.startTime    = "50,61,72,83,94,105,116,127,138,149,160,171,182,193,204,215,226,237,248,259,270,281,292,303,314,325,336,347,358,369,380,391,402,413,424,435,446,457,468,479,490,501" # Start Time (s)
#*.vehicle[*].appl.duration     = "10,10,10,10,10,10,10,10,10,10,10,10,10,10,10,10,10,10,10,10,10,10,10,10,10,10,10,10,10,10,10,10,10,10,10,10,10,10,10,10,10,10"   # Attack Duration (s)
#*.vehicle[*].appl.attackSize   = "10,10,10,10,10,10,10,10,10,10,10,10,10,10,10,10,10,10,10,10,10,10,10,10,10,10,10,10,10,10,10,10,10,10,10,10,10,10,10,10,10,10"   # How many packets will be sent by burst

##########################################################
#                   Sentinel Settings                    #
##########################################################
*.controller.sentinel = false           # Sentinel active?
*.controller.normalCheck = 10           # How many reports will be considered to validate the next value
*.controller.abnormalCheck = 3          # How many successive abnormal reports to consider an attack
*.controller.numThreshold =  2          # Threshold for packet amount
*.controller.flowThreshold = 1          # Threshold for flow amount

##########################################################
#                   Scenario Settings                    #
##########################################################
[Config Centralized]
network = CentralizedSdvn
*.architecture = 0
*.rsuType = "sdvn.nodes.RSU_C"

[Config Distributed]
network = DistributedSdvn
*.architecture = 1
*.rsuType = "sdvn.nodes.RSU_D"

# Map setting for synthetic scenario
include SyntheticScenario.ini

# Map setting for realistic scenario
include RealisticScenario.ini

[Config Normal]
*.controller.sentinel = false
*.vehicle[*].appl.attackMode = 0

[Config Flooding]
*.controller.sentinel = false
*.vehicle[*].appl.attackMode = 2

[Config Sentinel]
*.controller.sentinel = true
*.vehicle[*].appl.attackMode = 2

##########################################################
#          Synthetic Centralized Configurations          #
##########################################################

[Config Synthetic_Centralized_Normal]
extends = SyntheticScenario, Centralized, Normal
description = "Centralized SDVN within a synthetic scenario WITHOUT attackers."

[Config Synthetic_Centralized_Flooding]
extends = SyntheticScenario, Centralized, Flooding
description = "Centralized SDVN within a synthetic scenario WITH attackers."

[Config Synthetic_Centralized_Sentinel]
extends = SyntheticScenario, Centralized, Sentinel
description = "Centralized SDVN within a synthetic scenario WITH attackers and Sentinel ACTIVE."

##########################################################
#          Realistic Centralized Configurations          #
##########################################################

[Config Realistic_Centralized_Normal]
extends = RealisticScenario, Centralized, Normal
description = "Centralized SDVN within a realistic scenario WITHOUT attackers."

[Config Realistic_Centralized_Flooding]
extends = RealisticScenario, Centralized, Flooding
description = "Centralized SDVN within a realistic scenario WITH attackers."

[Config Realistic_Centralized_Sentinel]
extends = RealisticScenario, Centralized, Sentinel
description = "Centralized SDVN within a realistic scenario WITH attackers and Sentinel ACTIVE."

##########################################################
#           Synthetic Distributed Configurations         #
##########################################################

[Config Synthetic_Distributed_Normal]
extends = SyntheticScenario, Distributed, Normal
description = "Distributed SDVN within a synthetic scenario WITHOUT attackers."


#---------------------------------------------------------------------------------------------------------------
#-----------------------------------------------  NOT USED  ----------------------------------------------------
#---------------------------------------------------------------------------------------------------------------

#[Config Centralized_Black_Hole]
#description = "Centralized SDVN with some vehicles elected to drop every packet that arrived."
#*.vehicle[*].appl.attackMode = 1

#[Config Centralized_Overflow]
#description = "Centralized SDVN with some vehicles elected to flood a single vehicle with random messages."
#*.vehicle[*].appl.attackMode = 3