[General]
##########################################################
#               Console parameters                       #
##########################################################
cmdenv-express-mode = true
cmdenv-autoflush = false
cmdenv-status-frequency = 1s
cmdenv-performance-display = true

##########################################################
#            Simulation parameters                       #
##########################################################
ned-path = .
sim-time-limit = 15s

**.debug = false
**.coreDebug = false

repeat = 1
seed-set = ${repetition}

debug-on-errors = true
print-undisposed = true
**.scalar-recording = true
**.vector-recording = true

##########################################################
# Annotation parameters                                  #
##########################################################
*.annotations.draw = false

##########################################################
#            WorldUtility parameters                     #
##########################################################
*.world.useTorus = false
*.world.use2D = false

##########################################################
#            TraCIScenarioManager parameters             #
##########################################################
*.manager.updateInterval = 0.1s
*.manager.host = "localhost"
*.manager.port = 9999
*.manager.moduleType = "sdvn.nodes.Car"
*.manager.moduleName = "vehicle"
*.manager.moduleDisplayString = ""
*.manager.autoShutdown = true
*.manager.margin = 25

##########################################################
#                    SWITCHER CONFIGS                    #
##########################################################
# BaseWaveAppl
*.**.switcher.debug = false
*.**.switcher.headerLength = 256 bit
*.**.switcher.sendBeacons = true
*.**.switcher.dataOnSch = false
*.**.switcher.sendData = true
*.**.switcher.beaconInterval = 0.5s
*.**.switcher.beaconPriority = 3
*.**.switcher.dataPriority = 2
*.**.switcher.maxOffset = 0.005s

# Switcher
*.**.switcher.controllerBeaconsInterval = 1s
*.**.switcher.standbyTime = 5s
*.**.switcher.maxPacketStandbyBuffer = 100
*.**.switcher.maxPacketInBuffer = 100
*.**.switcher.maxFlowRules = 50

##########################################################
#               LTE AND CONTROLLER SETTINGS              #
##########################################################
# SDVN Controller settings
*.controller.debug = false
*.controller.dropAfter = 10s  # drop all messages after X seconds without neighbor message 
*.controller.hardTimeout = 5s
*.controller.idleTimeout = 3s

# LTE settings
*.base.lteDelay = 0.1s
*.base.power = 0 # not in use yet

# RSU settings
*.prefixRsuId = 10000
*.rsu[*].mobility.z = 3

##########################################################
#            11p specific parameters                     #
#                    NIC-Settings                        #
##########################################################
*.connectionManager.pMax = 5mW
*.connectionManager.sat = -89dBm
*.connectionManager.alpha = 2.0
*.connectionManager.carrierFrequency = 5.890e9 Hz
*.connectionManager.sendDirect = true
*.connectionManager.drawMaxIntfDist = false

*.**.nic.mac1609_4.useServiceChannel = false
*.**.nic.mac1609_4.txPower = 5mW
*.**.nic.mac1609_4.bitrate = 18Mbps

*.**.nic.phy80211p.sensitivity = -89dBm
*.**.nic.phy80211p.useThermalNoise = true
*.**.nic.phy80211p.thermalNoise = -110dBm
*.**.nic.phy80211p.decider = xmldoc("config.xml")
*.**.nic.phy80211p.analogueModels = xmldoc("config.xml")
*.**.nic.phy80211p.usePropagationDelay = true

##########################################################
#                    Vehicle Mobility                    #
##########################################################
*.vehicle[*].mobilityType = "sdvn.modules.SdvnMobility"
*.vehicle[*].mobility.x = 0
*.vehicle[*].mobility.y = 0
*.vehicle[*].mobility.z = 1.895
*.vehicle[*].mobility.speed = 20

##########################################################
#                      Appl Settings                     #
##########################################################
*.vehicle[*].appl.warmUp         = 3s  # Must be greater than the first neighbor beacon in order to controller knows the vehicle first
*.vehicle[*].appl.burstSize      = 1   # How many packets will be sent by burst
*.vehicle[*].appl.burstInterval  = 1s  # Interval between the bursts

##########################################################
#                    Attacks Settings                    #
##########################################################
*.attacker.checkInterval = 1s                # Used to refresh the attackers status
*.attacker.attackerRate = 0.25               # 0.25 = 25% of vehicles will be attackers
*.attacker.attackScale = ${Scale=5,10,20}    # 5 = attack burst will be 5 times bigger than normal burst
*.attacker.numVictims = 10                   # How many vehicles will be attacked
*.attacker.victimWarmUp = 11s                # 11s = Vehicle must exist for at least 11s in order to be an victim
*.attacker.startTime = 20s                   # 20s = First victim will be attacked at 20s
*.attacker.duration = 5s                     # 5s = Each attack will last 5s

##########################################################
#                   Sentinel Settings                    #
##########################################################
*.controller.normalCheck   = 10   # How many samples will be considered to validate the next value
*.controller.abnormalCheck = 3    # How many successive abnormal samples to consider an attack
*.controller.numThreshold  = 3.0  # Threshold for packet amount
*.controller.flowThreshold = 1.0  # Threshold for flow amount

##########################################################
#                 Architecture Settings                  #
##########################################################
[Config Centralized]
network = CentralizedSdvn
*.architecture = 0
*.rsuType = "sdvn.nodes.RSU_C"

[Config Distributed]
network = DistributedSdvn
*.architecture = 1
*.rsuType = "sdvn.nodes.RSU_D"

##########################################################
#                   Scenario Settings                    #
##########################################################
# Map setting for synthetic scenario
include SyntheticScenario.ini

# Map setting for realistic scenario
include RealisticScenario.ini

##########################################################
#                  Attack Mode Settings                  #
##########################################################
[Config Normal]
*.controller.sentinel = false
*.attacker.numVictims = 0

[Config Flooding]
*.controller.sentinel = false

[Config Sentinel]
*.controller.sentinel = true

##########################################################
#          Synthetic Centralized Configurations          #
##########################################################

[Config Synthetic_Centralized_Normal]
extends = SyntheticScenario, Centralized, Normal
description = "Centralized SDVN within a synthetic scenario WITHOUT attackers."

[Config Synthetic_Centralized_Flooding]
extends = SyntheticScenario, Centralized, Flooding
description = "Centralized SDVN within a synthetic scenario WITH attackers."

[Config Synthetic_Centralized_Sentinel]
extends = SyntheticScenario, Centralized, Sentinel
description = "Centralized SDVN within a synthetic scenario WITH attackers and Sentinel ACTIVE."

##########################################################
#          Realistic Centralized Configurations          #
##########################################################

[Config Realistic_Centralized_Normal]
extends = RealisticScenario, Centralized, Normal
description = "Centralized SDVN within a realistic scenario WITHOUT attackers."

[Config Realistic_Centralized_Flooding]
extends = RealisticScenario, Centralized, Flooding
description = "Centralized SDVN within a realistic scenario WITH attackers."

[Config Realistic_Centralized_Sentinel]
extends = RealisticScenario, Centralized, Sentinel
description = "Centralized SDVN within a realistic scenario WITH attackers and Sentinel ACTIVE."

##########################################################
#           Synthetic Distributed Configurations         #
##########################################################

[Config Synthetic_Distributed_Normal]
extends = SyntheticScenario, Distributed, Normal
description = "Distributed SDVN within a synthetic scenario WITHOUT attackers."

[Config Synthetic_Distributed_Flooding]
extends = SyntheticScenario, Distributed, Flooding
description = "Distributed SDVN within a synthetic scenario WITH attackers."

[Config Synthetic_Distributed_Sentinel]
extends = SyntheticScenario, Distributed, Sentinel
description = "Distributed SDVN within a synthetic scenario WITH attackers and Sentinel ACTIVE."

##########################################################
#           Realistic Distributed Configurations         #
##########################################################

[Config Realistic_Distributed_Normal]
extends = RealisticScenario, Distributed, Normal
description = "Distributed SDVN within a realistic scenario WITHOUT attackers."

[Config Realistic_Distributed_Flooding]
extends = RealisticScenario, Distributed, Flooding
description = "Distributed SDVN within a realistic scenario WITH attackers."

[Config Realistic_Distributed_Sentinel]
extends = RealisticScenario, Distributed, Sentinel
description = "Distributed SDVN within a realistic scenario WITH attackers and Sentinel ACTIVE."
